@<TRIPOS>MOLECULE
UNL
   21    23     1     0     0
SMALL
bcc


@<TRIPOS>ATOM
      1 C6         -24.7000    32.5260    11.8900 c2         1 UNL       0.178000
      2 C7         -23.6840    33.1060    12.8970 c1         1 UNL      -0.097000
      3 C8         -23.0850    32.0040    13.7650 c1         1 UNL      -0.072000
      4 N1         -22.3780    30.9790    12.9980 n3         1 UNL      -0.126000
      5 C9         -22.7060    30.9840    11.5750 c1         1 UNL       0.239000
      6 C10        -24.2070    31.1690    11.2790 c2         1 UNL      -0.078000
      7 H11        -22.5680    30.0640    13.4050 hn         1 UNL       0.279000
      8 C11        -25.1040    29.9730    11.7420 c2         1 UNL      -0.014000
      9 C12        -26.2710    29.7420    10.7540 c1         1 UNL      -0.215500
     10 C13        -27.1110    28.5240    11.1370 c1         1 UNL       0.085500
     11 N2         -26.2990    27.3120    11.2260 n3         1 UNL      -0.155000
     12 C14        -25.2400    27.4750    12.2190 c1         1 UNL       0.085500
     13 C15        -24.3210    28.6530    11.8910 c1         1 UNL      -0.215500
     14 H20        -25.8770    27.1270    10.3150 hn         1 UNL       0.278000
     15 C5         -25.0190    33.5370    10.7680 c1         1 UNL       0.009000
     16 C1         -28.7250    35.6690    11.3500 c1         1 UNL       0.123000
     17 C2         -28.2120    34.8700    12.3700 c1         1 UNL      -0.189500
     18 C3         -27.0140    34.1790    12.1810 c1         1 UNL       0.040000
     19 C4         -26.3200    34.2780    10.9690 c2         1 UNL      -0.006000
     20 C16        -26.8450    35.0830     9.9490 c1         1 UNL       0.040000
     21 C17        -28.0420    35.7750    10.1400 c1         1 UNL      -0.189500
@<TRIPOS>BOND
     1     1     2 1   
     2     1     6 1   
     3     1    15 1   
     4     2     3 1   
     5     3     4 1   
     6     4     5 1   
     7     4     7 1   
     8     5     6 1   
     9     6     8 1   
    10     8     9 1   
    11     8    13 1   
    12     9    10 1   
    13    10    11 1   
    14    11    12 1   
    15    11    14 1   
    16    12    13 1   
    17    15    19 1   
    18    16    17 1   
    19    16    21 1   
    20    17    18 1   
    21    18    19 1   
    22    19    20 1   
    23    20    21 1   
@<TRIPOS>SUBSTRUCTURE
     1 UNL         1 TEMP              0 ****  ****    0 ROOT
