@<TRIPOS>MOLECULE
UNL
   28    31     1     0     0
SMALL
bcc


@<TRIPOS>ATOM
      1 C6         -31.0400    36.3050    16.9050 c2         1 UNL      -0.315000
      2 N3         -32.0770    36.7400    17.7120 n3         1 UNL      -0.160000
      3 C7         -33.2620    36.6990    17.0380 c1         1 UNL      -0.031000
      4 C8         -32.9950    36.2770    15.7580 c1         1 UNL      -0.085000
      5 C9         -31.5960    36.0550    15.6520 c2         1 UNL       0.003000
      6 H6         -31.9640    37.0680    18.6620 hn         1 UNL       0.227000
      7 C10        -30.8180    35.5900    14.3630 c2         1 UNL       0.008000
      8 N4         -29.5520    35.0470    14.3970 n3         1 UNL      -0.182000
      9 C11        -29.1190    34.7550    13.1310 c1         1 UNL      -0.109000
     10 C12        -30.1190    35.1100    12.2590 c1         1 UNL       0.082000
     11 C13        -31.1940    35.6430    13.0270 c2         1 UNL      -0.234000
     12 H9         -29.0030    34.9360    15.2420 hn         1 UNL       0.278000
     13 C14        -32.4560    36.1220    12.5070 c2         1 UNL       0.141000
     14 C15        -33.2840    35.2610    11.7780 c1         1 UNL      -0.014000
     15 C16        -34.5120    35.7160    11.2950 c1         1 UNL      -0.041000
     16 C17        -34.9190    37.0280    11.5460 c1         1 UNL      -0.027000
     17 C18        -34.1000    37.8850    12.2810 c1         1 UNL      -0.041000
     18 C19        -32.8720    37.4330    12.7660 c1         1 UNL      -0.014000
     19 O1         -28.7100    36.5560    16.7040 o          1 UNL      -0.405000
     20 C1         -29.6710    36.2030    17.3820 c2         1 UNL       0.343000
     21 N1         -29.5840    35.6420    18.6450 n          1 UNL      -0.146000
     22 H1         -30.4100    35.2080    19.0320 hn         1 UNL       0.256000
     23 C2         -28.4260    35.4810    19.3820 c2         1 UNL       0.181000
     24 C3         -28.1370    36.1560    20.5960 c1         1 UNL      -0.329000
     25 C4         -26.8940    35.7380    21.0220 c1         1 UNL       0.096000
     26 N2         -26.4210    34.8350    20.1080 n3         1 UNL      -0.268000
     27 C5         -27.3440    34.6770    19.1060 c1         1 UNL       0.454000
     28 H4         -25.5300    34.3570    20.1600 hn         1 UNL       0.329000
@<TRIPOS>BOND
     1     1     2 1   
     2     1     5 1   
     3     1    20 1   
     4     2     3 1   
     5     2     6 1   
     6     3     4 1   
     7     4     5 1   
     8     5     7 1   
     9     7     8 1   
    10     7    11 1   
    11     8     9 1   
    12     8    12 1   
    13     9    10 1   
    14    10    11 1   
    15    11    13 1   
    16    13    14 1   
    17    13    18 1   
    18    14    15 1   
    19    15    16 1   
    20    16    17 1   
    21    17    18 1   
    22    19    20 1   
    23    20    21 1   
    24    21    22 1   
    25    21    23 1   
    26    23    24 1   
    27    23    27 1   
    28    24    25 1   
    29    25    26 1   
    30    26    27 1   
    31    26    28 1   
@<TRIPOS>SUBSTRUCTURE
     1 UNL         1 TEMP              0 ****  ****    0 ROOT
