@<TRIPOS>MOLECULE
UNL
   40    43     1     0     0
SMALL
bcc


@<TRIPOS>ATOM
      1 O1          10.7920    -2.4870     2.0510 o          1 UNL      -0.347000
      2 C1          11.9360    -2.0350     2.0930 c2         1 UNL       0.280000
      3 N1          12.2540    -0.6870     2.1520 n          1 UNL      -0.288000
      4 C2          11.3950     0.3610     2.3500 c2         1 UNL      -0.168000
      5 N2          11.8150     1.6040     2.2860 n2         1 UNL      -0.157000
      6 C3          10.7670     2.4620     2.5540 c2         1 UNL      -0.112000
      7 C4           9.5620     1.8560     2.8300 c2         1 UNL      -0.521000
      8 S1           9.7540     0.1550     2.7620 ss         1 UNL       0.585000
      9 C5          13.2040    -2.9380     1.9550 c3         1 UNL       0.091000
     10 C6          12.9550    -4.4400     1.8660 ca         1 UNL      -0.102000
     11 C7          13.7650    -5.2180     1.0170 ca         1 UNL      -0.099000
     12 C8          13.6020    -6.6030     0.9410 ca         1 UNL      -0.136000
     13 C9          12.6350    -7.2360     1.7190 ca         1 UNL      -0.113000
     14 C10         11.8350    -6.4860     2.5790 ca         1 UNL      -0.136000
     15 C11         11.9980    -5.1010     2.6580 ca         1 UNL      -0.099000
     16 N3          14.1960    -2.6230     2.9920 n          1 UNL      -0.357000
     17 C12         14.1640    -3.1980     4.3300 c3         1 UNL       0.017000
     18 C13         15.2480    -2.4460     5.0300 ca         1 UNL      -0.072000
     19 C14         15.7130    -2.5700     6.3270 ca         1 UNL      -0.119000
     20 C15         16.7440    -1.7200     6.7400 ca         1 UNL      -0.100000
     21 C16         17.2920    -0.7640     5.8630 ca         1 UNL      -0.142000
     22 C17         16.8180    -0.6440     4.5560 ca         1 UNL      -0.049000
     23 C18         15.8040    -1.4980     4.1710 ca         1 UNL      -0.134000
     24 C19         15.1020    -1.5850     2.8880 c2         1 UNL       0.360000
     25 O2          15.2370    -0.8260     1.9470 o          1 UNL      -0.351000
     26 H1          13.2130    -0.3950     1.9690 hn         1 UNL       0.278000
     27 H2          10.9390     3.5320     2.5460 h4         1 UNL       0.178000
     28 H3           8.6140     2.3120     3.0690 h4         1 UNL       0.179000
     29 H4          13.6350    -2.6250     0.9910 h1         1 UNL       0.134000
     30 H5          14.5330    -4.7460     0.4060 ha         1 UNL       0.143500
     31 H6          14.2300    -7.1880     0.2720 ha         1 UNL       0.136500
     32 H7          12.5030    -8.3130     1.6530 ha         1 UNL       0.135000
     33 H8          11.0780    -6.9780     3.1860 ha         1 UNL       0.136500
     34 H9          11.3570    -4.5430     3.3380 ha         1 UNL       0.143500
     35 H10         13.1880    -3.0080     4.7860 h1         1 UNL       0.113000
     36 H11         14.3920    -4.2660     4.2830 h1         1 UNL       0.113000
     37 H12         15.2920    -3.3010     7.0100 ha         1 UNL       0.143000
     38 H13         17.1280    -1.7940     7.7560 ha         1 UNL       0.138000
     39 H14         18.0890    -0.1120     6.2110 ha         1 UNL       0.141000
     40 H15         17.2230     0.0910     3.8690 ha         1 UNL       0.157000
@<TRIPOS>BOND
     1     1     2 1   
     2     2     3 1   
     3     2     9 1   
     4     3     4 1   
     5     3    26 1   
     6     4     5 1   
     7     4     8 1   
     8     5     6 1   
     9     6     7 1   
    10     6    27 1   
    11     7     8 1   
    12     7    28 1   
    13     9    10 1   
    14     9    16 1   
    15     9    29 1   
    16    10    11 1   
    17    10    15 1   
    18    11    12 1   
    19    11    30 1   
    20    12    13 1   
    21    12    31 1   
    22    13    14 1   
    23    13    32 1   
    24    14    15 1   
    25    14    33 1   
    26    15    34 1   
    27    16    17 1   
    28    16    24 1   
    29    17    18 1   
    30    17    35 1   
    31    17    36 1   
    32    18    19 1   
    33    18    23 1   
    34    19    20 1   
    35    19    37 1   
    36    20    21 1   
    37    20    38 1   
    38    21    22 1   
    39    21    39 1   
    40    22    23 1   
    41    22    40 1   
    42    23    24 1   
    43    24    25 1   
@<TRIPOS>SUBSTRUCTURE
     1 UNL         1 TEMP              0 ****  ****    0 ROOT
