@<TRIPOS>MOLECULE
UNL
   26    29     1     0     0
SMALL
bcc


@<TRIPOS>ATOM
      1 C5         -24.2280    31.4480    12.9810 c2         1 UNL      -0.006000
      2 N3         -22.8320    31.5880    13.4180 n          1 UNL      -0.148000
      3 C12        -21.7550    30.9970    12.6340 c1         1 UNL       0.002000
      4 C13        -20.5320    31.6050    13.2320 c2         1 UNL       0.095000
      5 C14        -19.1980    31.3890    12.9360 c1         1 UNL      -0.076000
      6 C15        -18.2390    32.1210    13.6460 c1         1 UNL       0.057000
      7 C16        -18.6180    33.0500    14.6320 c1         1 UNL       0.016000
      8 C17        -19.9650    33.2650    14.9240 c1         1 UNL      -0.020000
      9 C18        -20.8910    32.5280    14.2100 c2         1 UNL      -0.090000
     10 C19        -22.3540    32.5440    14.2960 c2         1 UNL       0.398000
     11 O2         -23.0060    33.2550    15.0390 o          1 UNL      -0.172000
     12 O1         -24.1640    32.5730    10.8490 o          1 UNL      -0.278000
     13 C1         -24.7670    32.4530    11.9180 c2         1 UNL       0.331000
     14 N1         -25.8510    33.2010    12.3090 n          1 UNL      -0.283000
     15 C2         -26.5490    34.1180    11.5680 c2         1 UNL       0.059000
     16 N2         -27.5640    34.7780    12.0800 n2         1 UNL      -0.018000
     17 C3         -28.1080    35.6130    11.1250 c1         1 UNL      -0.103000
     18 C4         -27.4960    35.5780     9.8920 c1         1 UNL      -0.270000
     19 S1         -26.1970    34.4590     9.9340 ss         1 UNL       0.342000
     20 H1         -26.1900    33.1230    13.2670 hn         1 UNL       0.283000
     21 C6         -24.6020    30.0020    12.6840 c2         1 UNL      -0.010000
     22 C7         -25.2560    29.6820    11.4810 c1         1 UNL      -0.045500
     23 C8         -25.6260    28.3670    11.1950 c1         1 UNL      -0.013500
     24 C9         -25.3560    27.3520    12.1090 c1         1 UNL       0.010000
     25 C10        -24.7100    27.6520    13.3050 c1         1 UNL      -0.013500
     26 C11        -24.3370    28.9670    13.5930 c1         1 UNL      -0.045500
@<TRIPOS>BOND
     1     1     2 1   
     2     1    13 1   
     3     1    21 1   
     4     2     3 1   
     5     2    10 1   
     6     3     4 1   
     7     4     5 1   
     8     4     9 1   
     9     5     6 1   
    10     6     7 1   
    11     7     8 1   
    12     8     9 1   
    13     9    10 1   
    14    10    11 1   
    15    12    13 1   
    16    13    14 1   
    17    14    15 1   
    18    14    20 1   
    19    15    16 1   
    20    15    19 1   
    21    16    17 1   
    22    17    18 1   
    23    18    19 1   
    24    21    22 1   
    25    21    26 1   
    26    22    23 1   
    27    23    24 1   
    28    24    25 1   
    29    25    26 1   
@<TRIPOS>SUBSTRUCTURE
     1 UNL         1 TEMP              0 ****  ****    0 ROOT
