@<TRIPOS>MOLECULE
UNL
   43    46     1     0     0
SMALL
bcc


@<TRIPOS>ATOM
      1 O1          11.1760    -1.2900     3.1580 o          1 UNL      -0.348000
      2 C1          12.2800    -1.1440     2.6470 c2         1 UNL       0.275000
      3 N1          12.8870     0.0720     2.3730 n          1 UNL      -0.286000
      4 C2          12.3770     1.3250     2.5900 c2         1 UNL      -0.174000
      5 N2          13.0910     2.3980     2.3390 n2         1 UNL      -0.154000
      6 C3          12.3510     3.5270     2.6290 c2         1 UNL      -0.112000
      7 C4          11.0780     3.2940     3.1010 c2         1 UNL      -0.518000
      8 S1          10.8020     1.6060     3.1760 ss         1 UNL       0.590000
      9 C5          13.1940    -2.3420     2.2540 c3         1 UNL       0.082000
     10 C6          12.5240    -3.6980     2.0660 ca         1 UNL      -0.066000
     11 C7          11.5240    -4.1890     2.9190 ca         1 UNL      -0.104500
     12 C8          10.9690    -5.4580     2.7230 ca         1 UNL      -0.087500
     13 C9          11.4080    -6.2760     1.6730 ca         1 UNL      -0.147000
     14 C10         10.8170    -7.6500     1.4820 c3         1 UNL       0.465000
     15 F1           9.4680    -7.6780     1.6620 f          1 UNL      -0.164333
     16 F2          11.0370    -8.1650     0.2400 f          1 UNL      -0.164333
     17 F3          11.3300    -8.5590     2.3580 f          1 UNL      -0.164333
     18 C11         12.4250    -5.8040     0.8340 ca         1 UNL      -0.087500
     19 C12         12.9750    -4.5340     1.0300 ca         1 UNL      -0.104500
     20 N3          14.3250    -2.4120     3.1790 n          1 UNL      -0.356000
     21 C13         14.2440    -3.0120     4.5030 c3         1 UNL       0.014000
     22 C14         15.5450    -2.6110     5.1160 ca         1 UNL      -0.072000
     23 C15         16.0710    -2.9250     6.3560 ca         1 UNL      -0.117000
     24 C16         17.3260    -2.4020     6.6890 ca         1 UNL      -0.098000
     25 C17         18.0310    -1.5750     5.7930 ca         1 UNL      -0.141000
     26 C18         17.4920    -1.2580     4.5460 ca         1 UNL      -0.048000
     27 C19         16.2570    -1.7930     4.2380 ca         1 UNL      -0.135000
     28 C20         15.4500    -1.6220     3.0280 c2         1 UNL       0.360000
     29 O2          15.6930    -0.8740     2.0980 o          1 UNL      -0.346000
     30 H1          13.8430     0.0840     2.0230 hn         1 UNL       0.278000
     31 H2          12.7940     4.5050     2.4800 h4         1 UNL       0.180000
     32 H3          10.3250     4.0100     3.3950 h4         1 UNL       0.181000
     33 H4          13.5980    -2.0600     1.2700 h1         1 UNL       0.139000
     34 H5          11.1550    -3.5920     3.7510 ha         1 UNL       0.154500
     35 H6          10.1850    -5.8040     3.3960 ha         1 UNL       0.156000
     36 H7          12.7990    -6.4260     0.0220 ha         1 UNL       0.156000
     37 H8          13.7730    -4.2030     0.3640 ha         1 UNL       0.154500
     38 H9          13.4000    -2.5820     5.0510 h1         1 UNL       0.112000
     39 H10         14.1600    -4.0980     4.4120 h1         1 UNL       0.112000
     40 H11         15.5340    -3.5580     7.0560 ha         1 UNL       0.144000
     41 H12         17.7640    -2.6340     7.6580 ha         1 UNL       0.140000
     42 H13         19.0030    -1.1790     6.0770 ha         1 UNL       0.143000
     43 H14         18.0170    -0.6170     3.8460 ha         1 UNL       0.158000
@<TRIPOS>BOND
     1     1     2 1   
     2     2     3 1   
     3     2     9 1   
     4     3     4 1   
     5     3    30 1   
     6     4     5 1   
     7     4     8 1   
     8     5     6 1   
     9     6     7 1   
    10     6    31 1   
    11     7     8 1   
    12     7    32 1   
    13     9    10 1   
    14     9    20 1   
    15     9    33 1   
    16    10    11 1   
    17    10    19 1   
    18    11    12 1   
    19    11    34 1   
    20    12    13 1   
    21    12    35 1   
    22    13    14 1   
    23    13    18 1   
    24    14    15 1   
    25    14    16 1   
    26    14    17 1   
    27    18    19 1   
    28    18    36 1   
    29    19    37 1   
    30    20    21 1   
    31    20    28 1   
    32    21    22 1   
    33    21    38 1   
    34    21    39 1   
    35    22    23 1   
    36    22    27 1   
    37    23    24 1   
    38    23    40 1   
    39    24    25 1   
    40    24    41 1   
    41    25    26 1   
    42    25    42 1   
    43    26    27 1   
    44    26    43 1   
    45    27    28 1   
    46    28    29 1   
@<TRIPOS>SUBSTRUCTURE
     1 UNL         1 TEMP              0 ****  ****    0 ROOT
