@<TRIPOS>MOLECULE
UNL
   26    29     1     0     0
SMALL
bcc


@<TRIPOS>ATOM
      1 C5         -24.2570    31.4130    11.3520 c2         1 UNL       0.201000
      2 N3         -23.3800    31.7850    12.4630 n          1 UNL      -0.249000
      3 C12        -23.7280    32.7930    13.4540 c1         1 UNL       0.116000
      4 C13        -22.4460    32.9610    14.2030 c2         1 UNL      -0.097000
      5 C14        -22.1620    33.7500    15.3030 c1         1 UNL      -0.001000
      6 C15        -20.8550    33.7350    15.8050 c1         1 UNL       0.030000
      7 C16        -19.8570    32.9450    15.2060 c1         1 UNL       0.046000
      8 C17        -20.1480    32.1530    14.0930 c1         1 UNL      -0.025000
      9 C18        -21.4470    32.1800    13.6230 c2         1 UNL      -0.067000
     10 C19        -22.0320    31.4760    12.4790 c2         1 UNL       0.350000
     11 O2         -21.4270    30.8120    11.6580 o          1 UNL      -0.176000
     12 O1         -24.8060    33.2510     9.8190 o          1 UNL      -0.258000
     13 C1         -25.0400    32.6710    10.8750 c2         1 UNL       0.323000
     14 N1         -26.0410    33.0100    11.7730 n          1 UNL      -0.278000
     15 C2         -26.8840    34.0640    11.5850 c2         1 UNL       0.068000
     16 N2         -26.8960    34.9670    10.6380 n2         1 UNL      -0.027000
     17 C3         -27.9360    35.8470    10.8590 c1         1 UNL      -0.094000
     18 C4         -28.7010    35.5950    11.9780 c1         1 UNL      -0.275000
     19 S1         -28.0960    34.2050    12.7830 ss         1 UNL       0.351000
     20 H1         -26.2360    32.4050    12.5690 hn         1 UNL       0.290000
     21 C6         -25.0610    30.1530    11.6490 c2         1 UNL      -0.076000
     22 C7         -24.7240    29.2430    12.6620 c1         1 UNL       0.010000
     23 C8         -25.4740    28.0810    12.8620 c1         1 UNL      -0.147500
     24 C9         -26.5650    27.8000    12.0430 c1         1 UNL       0.121000
     25 C10        -26.9040    28.6800    11.0200 c1         1 UNL      -0.147500
     26 C11        -26.1570    29.8420    10.8200 c1         1 UNL       0.010000
@<TRIPOS>BOND
     1     1     2 1   
     2     1    13 1   
     3     1    21 1   
     4     2     3 1   
     5     2    10 1   
     6     3     4 1   
     7     4     5 1   
     8     4     9 1   
     9     5     6 1   
    10     6     7 1   
    11     7     8 1   
    12     8     9 1   
    13     9    10 1   
    14    10    11 1   
    15    12    13 1   
    16    13    14 1   
    17    14    15 1   
    18    14    20 1   
    19    15    16 1   
    20    15    19 1   
    21    16    17 1   
    22    17    18 1   
    23    18    19 1   
    24    21    22 1   
    25    21    26 1   
    26    22    23 1   
    27    23    24 1   
    28    24    25 1   
    29    25    26 1   
@<TRIPOS>SUBSTRUCTURE
     1 UNL         1 TEMP              0 ****  ****    0 ROOT
