@<TRIPOS>MOLECULE
UNL
   43    46     1     0     0
SMALL
bcc


@<TRIPOS>ATOM
      1 O1          -2.3240     1.1100    -0.0420 o          1 UNL      -0.348000
      2 C1          -1.2200     1.2560    -0.5530 c2         1 UNL       0.275000
      3 N1          -0.6130     2.4720    -0.8270 n          1 UNL      -0.286000
      4 C2          -1.1230     3.7250    -0.6100 c2         1 UNL      -0.174000
      5 N2          -0.4090     4.7980    -0.8610 n2         1 UNL      -0.154000
      6 C3          -1.1490     5.9270    -0.5710 c2         1 UNL      -0.112000
      7 C4          -2.4220     5.6940    -0.0990 c2         1 UNL      -0.518000
      8 S1          -2.6980     4.0060    -0.0240 ss         1 UNL       0.590000
      9 C5          -0.3060     0.0580    -0.9460 c3         1 UNL       0.082000
     10 C6          -0.9760    -1.2980    -1.1340 ca         1 UNL      -0.066000
     11 C7          -1.9760    -1.7890    -0.2810 ca         1 UNL      -0.104500
     12 C8          -2.5310    -3.0580    -0.4770 ca         1 UNL      -0.087500
     13 C9          -2.0920    -3.8760    -1.5270 ca         1 UNL      -0.147000
     14 C10         -2.6830    -5.2500    -1.7180 c3         1 UNL       0.465000
     15 F1          -4.0320    -5.2780    -1.5380 f          1 UNL      -0.164333
     16 F2          -2.4630    -5.7650    -2.9600 f          1 UNL      -0.164333
     17 F3          -2.1700    -6.1590    -0.8420 f          1 UNL      -0.164333
     18 C11         -1.0750    -3.4040    -2.3660 ca         1 UNL      -0.087500
     19 C12         -0.5250    -2.1340    -2.1700 ca         1 UNL      -0.104500
     20 N3           0.8250    -0.0120    -0.0210 n          1 UNL      -0.356000
     21 C13          0.7440    -0.6120     1.3030 c3         1 UNL       0.014000
     22 C14          2.0450    -0.2110     1.9160 ca         1 UNL      -0.072000
     23 C15          2.5710    -0.5250     3.1560 ca         1 UNL      -0.117000
     24 C16          3.8260    -0.0020     3.4890 ca         1 UNL      -0.098000
     25 C17          4.5310     0.8250     2.5930 ca         1 UNL      -0.141000
     26 C18          3.9920     1.1420     1.3460 ca         1 UNL      -0.048000
     27 C19          2.7570     0.6070     1.0380 ca         1 UNL      -0.135000
     28 C20          1.9500     0.7780    -0.1720 c2         1 UNL       0.360000
     29 O2           2.1930     1.5260    -1.1020 o          1 UNL      -0.346000
     30 H1           0.3430     2.4840    -1.1770 hn         1 UNL       0.278000
     31 H2          -0.7060     6.9050    -0.7200 h4         1 UNL       0.180000
     32 H3          -3.1750     6.4100     0.1950 h4         1 UNL       0.181000
     33 H4           0.0980     0.3400    -1.9300 h1         1 UNL       0.139000
     34 H5          -2.3450    -1.1920     0.5510 ha         1 UNL       0.154500
     35 H6          -3.3150    -3.4040     0.1960 ha         1 UNL       0.156000
     36 H7          -0.7010    -4.0260    -3.1780 ha         1 UNL       0.156000
     37 H8           0.2730    -1.8030    -2.8360 ha         1 UNL       0.154500
     38 H9          -0.1000    -0.1820     1.8510 h1         1 UNL       0.112000
     39 H10          0.6600    -1.6980     1.2120 h1         1 UNL       0.112000
     40 H11          2.0340    -1.1580     3.8560 ha         1 UNL       0.144000
     41 H12          4.2640    -0.2340     4.4580 ha         1 UNL       0.140000
     42 H13          5.5030     1.2210     2.8770 ha         1 UNL       0.143000
     43 H14          4.5170     1.7830     0.6460 ha         1 UNL       0.158000
@<TRIPOS>BOND
     1     1     2 1   
     2     2     3 1   
     3     2     9 1   
     4     3     4 1   
     5     3    30 1   
     6     4     5 1   
     7     4     8 1   
     8     5     6 1   
     9     6     7 1   
    10     6    31 1   
    11     7     8 1   
    12     7    32 1   
    13     9    10 1   
    14     9    20 1   
    15     9    33 1   
    16    10    11 1   
    17    10    19 1   
    18    11    12 1   
    19    11    34 1   
    20    12    13 1   
    21    12    35 1   
    22    13    14 1   
    23    13    18 1   
    24    14    15 1   
    25    14    16 1   
    26    14    17 1   
    27    18    19 1   
    28    18    36 1   
    29    19    37 1   
    30    20    21 1   
    31    20    28 1   
    32    21    22 1   
    33    21    38 1   
    34    21    39 1   
    35    22    23 1   
    36    22    27 1   
    37    23    24 1   
    38    23    40 1   
    39    24    25 1   
    40    24    41 1   
    41    25    26 1   
    42    25    42 1   
    43    26    27 1   
    44    26    43 1   
    45    27    28 1   
    46    28    29 1   
@<TRIPOS>SUBSTRUCTURE
     1 UNL         1 TEMP              0 ****  ****    0 ROOT
