@<TRIPOS>MOLECULE
UNL
   41    44     1     0     0
SMALL
bcc


@<TRIPOS>ATOM
      1 O1          10.5630    -1.2450     1.9530 o          1 UNL      -0.356000
      2 C1          11.6120    -1.3460     2.5920 c2         1 UNL       0.287000
      3 N1          11.8880    -0.7080     3.7780 n          1 UNL      -0.272000
      4 C2          11.1260     0.2350     4.4160 c2         1 UNL      -0.173000
      5 N2          11.4620     0.6930     5.6000 n2         1 UNL      -0.152000
      6 C3          10.5410     1.6360     6.0120 c2         1 UNL      -0.112000
      7 C4           9.5190     1.8920     5.1250 c2         1 UNL      -0.519000
      8 S1           9.7220     0.9200     3.7300 ss         1 UNL       0.590000
      9 C5          12.6950    -2.3580     2.1100 c3         1 UNL       0.087000
     10 C6          12.3540    -3.8050     2.4540 ca         1 UNL      -0.092000
     11 C7          12.3460    -4.7800     1.4410 ca         1 UNL      -0.117500
     12 C8          12.0510    -6.1150     1.7340 ca         1 UNL      -0.092500
     13 C9          11.7650    -6.4990     3.0460 ca         1 UNL      -0.001000
     14 C10         11.4670    -7.8680     3.3480 c1         1 UNL      -0.100000
     15 N3          11.2300    -8.9790     3.5850 n1         1 UNL      -0.029000
     16 C11         11.7750    -5.5410     4.0620 ca         1 UNL      -0.092500
     17 C12         12.0680    -4.2060     3.7680 ca         1 UNL      -0.117500
     18 N4          14.1030    -2.0400     2.3780 n          1 UNL      -0.354000
     19 C13         15.0960    -2.1280     1.3160 c3         1 UNL       0.012000
     20 C14         16.3860    -1.9980     2.0520 ca         1 UNL      -0.075000
     21 C15         17.6820    -1.9630     1.5700 ca         1 UNL      -0.117000
     22 C16         18.7250    -1.8470     2.4970 ca         1 UNL      -0.098000
     23 C17         18.4640    -1.7690     3.8780 ca         1 UNL      -0.140000
     24 C18         17.1540    -1.8070     4.3560 ca         1 UNL      -0.048000
     25 C19         16.1440    -1.9210     3.4210 ca         1 UNL      -0.136000
     26 C20         14.6950    -1.9810     3.6270 c2         1 UNL       0.371000
     27 O2          14.1330    -1.9470     4.7050 o          1 UNL      -0.354000
     28 H1          12.6950    -1.0030     4.3260 hn         1 UNL       0.283000
     29 H2          10.6650     2.1110     6.9780 h4         1 UNL       0.179000
     30 H3           8.6930     2.5800     5.2250 h4         1 UNL       0.180000
     31 H4          12.6120    -2.2590     1.0160 h1         1 UNL       0.137000
     32 H5          12.5620    -4.5080     0.4090 ha         1 UNL       0.156500
     33 H6          12.0460    -6.8500     0.9310 ha         1 UNL       0.150500
     34 H7          11.5570    -5.8230     5.0910 ha         1 UNL       0.150500
     35 H8          12.0730    -3.4870     4.5860 ha         1 UNL       0.156500
     36 H9          15.0210    -3.1030     0.8240 h1         1 UNL       0.110500
     37 H10         14.9360    -1.3100     0.6080 h1         1 UNL       0.110500
     38 H11         17.8940    -2.0260     0.5080 ha         1 UNL       0.144000
     39 H12         19.7560    -1.8170     2.1460 ha         1 UNL       0.140000
     40 H13         19.2930    -1.6800     4.5780 ha         1 UNL       0.143000
     41 H14         16.9330    -1.7480     5.4170 ha         1 UNL       0.159000
@<TRIPOS>BOND
     1     1     2 1   
     2     2     3 1   
     3     2     9 1   
     4     3     4 1   
     5     3    28 1   
     6     4     5 1   
     7     4     8 1   
     8     5     6 1   
     9     6     7 1   
    10     6    29 1   
    11     7     8 1   
    12     7    30 1   
    13     9    10 1   
    14     9    18 1   
    15     9    31 1   
    16    10    11 1   
    17    10    17 1   
    18    11    12 1   
    19    11    32 1   
    20    12    13 1   
    21    12    33 1   
    22    13    14 1   
    23    13    16 1   
    24    14    15 1   
    25    16    17 1   
    26    16    34 1   
    27    17    35 1   
    28    18    19 1   
    29    18    26 1   
    30    19    20 1   
    31    19    36 1   
    32    19    37 1   
    33    20    21 1   
    34    20    25 1   
    35    21    22 1   
    36    21    38 1   
    37    22    23 1   
    38    22    39 1   
    39    23    24 1   
    40    23    40 1   
    41    24    25 1   
    42    24    41 1   
    43    25    26 1   
    44    26    27 1   
@<TRIPOS>SUBSTRUCTURE
     1 UNL         1 TEMP              0 ****  ****    0 ROOT
