@<TRIPOS>MOLECULE
UNL
   40    43     1     0     0
SMALL
bcc


@<TRIPOS>ATOM
      1 O1          16.1550    -2.8030     1.1320 o          1 UNL      -0.358000
      2 C1          15.3130    -2.3580     1.9150 c2         1 UNL       0.289000
      3 N1          15.4450    -1.2130     2.6630 n          1 UNL      -0.273000
      4 C2          16.4620    -0.2950     2.6110 c2         1 UNL      -0.170000
      5 N2          16.5110     0.7130     3.4520 n2         1 UNL      -0.154000
      6 C3          17.6200     1.4910     3.1810 c2         1 UNL      -0.113000
      7 C4          18.3940     1.0690     2.1240 c2         1 UNL      -0.521000
      8 S1          17.7080    -0.3470     1.4480 ss         1 UNL       0.590000
      9 C5          14.0250    -3.1910     2.1910 c3         1 UNL       0.093000
     10 C6          14.2630    -4.3610     3.1410 ca         1 UNL      -0.134000
     11 C7          13.8990    -5.6640     2.7500 ca         1 UNL      -0.086500
     12 C8          14.0920    -6.7470     3.6090 ca         1 UNL      -0.168000
     13 C9          14.6460    -6.5350     4.8650 ca         1 UNL       0.105000
     14 F1          14.8280    -7.5750     5.6890 f          1 UNL      -0.101000
     15 C10         15.0090    -5.2610     5.2780 ca         1 UNL      -0.168000
     16 C11         14.8180    -4.1760     4.4190 ca         1 UNL      -0.086500
     17 N3          12.7860    -2.4660     2.5010 n          1 UNL      -0.352000
     18 C12         11.5430    -2.8080     1.8230 c3         1 UNL       0.012000
     19 C13         10.5180    -2.0570     2.6030 ca         1 UNL      -0.075000
     20 C14          9.1530    -1.9520     2.4040 ca         1 UNL      -0.117000
     21 C15          8.4130    -1.1830     3.3100 ca         1 UNL      -0.099000
     22 C16          9.0390    -0.5370     4.3940 ca         1 UNL      -0.140000
     23 C17         10.4160    -0.6490     4.5890 ca         1 UNL      -0.049000
     24 C18         11.1220    -1.4130     3.6800 ca         1 UNL      -0.136000
     25 C19         12.5570    -1.7040     3.6320 c2         1 UNL       0.371000
     26 O2          13.3830    -1.3050     4.4310 o          1 UNL      -0.355000
     27 H1          14.7820    -1.0290     3.4140 hn         1 UNL       0.283000
     28 H2          17.8160     2.3640     3.7920 h4         1 UNL       0.178000
     29 H3          19.2970     1.5100     1.7280 h4         1 UNL       0.179000
     30 H4          13.8280    -3.6210     1.1960 h1         1 UNL       0.135000
     31 H5          13.4680    -5.8470     1.7680 ha         1 UNL       0.154500
     32 H6          13.8180    -7.7520     3.3070 ha         1 UNL       0.154500
     33 H7          15.4380    -5.1160     6.2640 ha         1 UNL       0.154500
     34 H8          15.1050    -3.1850     4.7680 ha         1 UNL       0.154500
     35 H9          11.6000    -2.4750     0.7830 h1         1 UNL       0.110000
     36 H10         11.3730    -3.8870     1.8890 h1         1 UNL       0.110000
     37 H11          8.6610    -2.4490     1.5740 ha         1 UNL       0.143000
     38 H12          7.3380    -1.0820     3.1780 ha         1 UNL       0.139000
     39 H13          8.4420     0.0550     5.0850 ha         1 UNL       0.142000
     40 H14         10.9160    -0.1600     5.4180 ha         1 UNL       0.159000
@<TRIPOS>BOND
     1     1     2 1   
     2     2     3 1   
     3     2     9 1   
     4     3     4 1   
     5     3    27 1   
     6     4     5 1   
     7     4     8 1   
     8     5     6 1   
     9     6     7 1   
    10     6    28 1   
    11     7     8 1   
    12     7    29 1   
    13     9    10 1   
    14     9    17 1   
    15     9    30 1   
    16    10    11 1   
    17    10    16 1   
    18    11    12 1   
    19    11    31 1   
    20    12    13 1   
    21    12    32 1   
    22    13    14 1   
    23    13    15 1   
    24    15    16 1   
    25    15    33 1   
    26    16    34 1   
    27    17    18 1   
    28    17    25 1   
    29    18    19 1   
    30    18    35 1   
    31    18    36 1   
    32    19    20 1   
    33    19    24 1   
    34    20    21 1   
    35    20    37 1   
    36    21    22 1   
    37    21    38 1   
    38    22    23 1   
    39    22    39 1   
    40    23    24 1   
    41    23    40 1   
    42    24    25 1   
    43    25    26 1   
@<TRIPOS>SUBSTRUCTURE
     1 UNL         1 TEMP              0 ****  ****    0 ROOT
