@<TRIPOS>MOLECULE
UNL
   40    43     1     0     0
SMALL
bcc


@<TRIPOS>ATOM
      1 O1           2.6550    -0.4030    -2.1440 o          1 UNL      -0.358000
      2 C1           1.8130     0.0420    -1.3620 c2         1 UNL       0.289000
      3 N1           1.9450     1.1870    -0.6140 n          1 UNL      -0.273000
      4 C2           2.9620     2.1050    -0.6660 c2         1 UNL      -0.170000
      5 N2           3.0110     3.1130     0.1760 n2         1 UNL      -0.154000
      6 C3           4.1200     3.8910    -0.0950 c2         1 UNL      -0.113000
      7 C4           4.8940     3.4690    -1.1530 c2         1 UNL      -0.521000
      8 S1           4.2080     2.0530    -1.8290 ss         1 UNL       0.590000
      9 C5           0.5250    -0.7910    -1.0850 c3         1 UNL       0.093000
     10 C6           0.7630    -1.9610    -0.1350 ca         1 UNL      -0.134000
     11 C7           0.3990    -3.2640    -0.5270 ca         1 UNL      -0.086500
     12 C8           0.5920    -4.3470     0.3330 ca         1 UNL      -0.168000
     13 C9           1.1460    -4.1350     1.5880 ca         1 UNL       0.105000
     14 F1           1.3280    -5.1750     2.4130 f          1 UNL      -0.101000
     15 C10          1.5090    -2.8610     2.0010 ca         1 UNL      -0.168000
     16 C11          1.3180    -1.7760     1.1430 ca         1 UNL      -0.086500
     17 N3          -0.7140    -0.0660    -0.7760 n          1 UNL      -0.352000
     18 C12         -1.9570    -0.4080    -1.4540 c3         1 UNL       0.012000
     19 C13         -2.9820     0.3430    -0.6740 ca         1 UNL      -0.075000
     20 C14         -4.3470     0.4480    -0.8720 ca         1 UNL      -0.117000
     21 C15         -5.0870     1.2170     0.0330 ca         1 UNL      -0.099000
     22 C16         -4.4610     1.8630     1.1170 ca         1 UNL      -0.140000
     23 C17         -3.0840     1.7510     1.3120 ca         1 UNL      -0.049000
     24 C18         -2.3780     0.9870     0.4030 ca         1 UNL      -0.136000
     25 C19         -0.9430     0.6960     0.3550 c2         1 UNL       0.371000
     26 O2          -0.1170     1.0950     1.1540 o          1 UNL      -0.355000
     27 H1           1.2820     1.3710     0.1370 hn         1 UNL       0.283000
     28 H2           4.3160     4.7640     0.5150 h4         1 UNL       0.178000
     29 H3           5.7970     3.9100    -1.5490 h4         1 UNL       0.179000
     30 H4           0.3280    -1.2210    -2.0800 h1         1 UNL       0.135000
     31 H5          -0.0320    -3.4470    -1.5090 ha         1 UNL       0.154500
     32 H6           0.3180    -5.3520     0.0310 ha         1 UNL       0.154500
     33 H7           1.9380    -2.7160     2.9880 ha         1 UNL       0.154500
     34 H8           1.6050    -0.7850     1.4920 ha         1 UNL       0.154500
     35 H9          -1.9000    -0.0750    -2.4940 h1         1 UNL       0.110000
     36 H10         -2.1270    -1.4870    -1.3870 h1         1 UNL       0.110000
     37 H11         -4.8390    -0.0490    -1.7030 ha         1 UNL       0.143000
     38 H12         -6.1620     1.3180    -0.0990 ha         1 UNL       0.139000
     39 H13         -5.0580     2.4550     1.8080 ha         1 UNL       0.142000
     40 H14         -2.5840     2.2400     2.1410 ha         1 UNL       0.159000
@<TRIPOS>BOND
     1     1     2 1   
     2     2     3 1   
     3     2     9 1   
     4     3     4 1   
     5     3    27 1   
     6     4     5 1   
     7     4     8 1   
     8     5     6 1   
     9     6     7 1   
    10     6    28 1   
    11     7     8 1   
    12     7    29 1   
    13     9    10 1   
    14     9    17 1   
    15     9    30 1   
    16    10    11 1   
    17    10    16 1   
    18    11    12 1   
    19    11    31 1   
    20    12    13 1   
    21    12    32 1   
    22    13    14 1   
    23    13    15 1   
    24    15    16 1   
    25    15    33 1   
    26    16    34 1   
    27    17    18 1   
    28    17    25 1   
    29    18    19 1   
    30    18    35 1   
    31    18    36 1   
    32    19    20 1   
    33    19    24 1   
    34    20    21 1   
    35    20    37 1   
    36    21    22 1   
    37    21    38 1   
    38    22    23 1   
    39    22    39 1   
    40    23    24 1   
    41    23    40 1   
    42    24    25 1   
    43    25    26 1   
@<TRIPOS>SUBSTRUCTURE
     1 UNL         1 TEMP              0 ****  ****    0 ROOT
